<?xml version="1.0" encoding="UTF-8"?>

<!-- generated on 07/12/20 15:01:19 by Eclipse SUMO polyconvert Version v1_6_0+0521-bad558c3e9
<configuration xmlns:xsi="http://www.w3.org/2001/XMLSchema-instance" xsi:noNamespaceSchemaLocation="http://sumo.dlr.de/xsd/polyconvertConfiguration.xsd">

    <input>
        <net-file value="osm.net.xml"/>
        <osm-files value="osm_bbox.osm.xml"/>
        <osm.keep-full-type value="true"/>
        <type-file value="C:\Users\spraychamber\Documents\Traffic_Simulation\sumo-git\data\typemap\osmPolyconvert.typ.xml"/>
    </input>

    <output>
        <output-file value="osm.poly.xml"/>
    </output>

    <processing>
        <poi-layer-offset value="5"/>
    </processing>

    <report>
        <verbose value="true"/>
    </report>

</configuration>
-->

<additional xmlns:xsi="http://www.w3.org/2001/XMLSchema-instance" xsi:noNamespaceSchemaLocation="http://sumo.dlr.de/xsd/additional_file.xsd">
    <location netOffset="-530010.14,-3835736.17" convBoundary="-907.30,0.00,3447.60,5001.48" origBoundary="-86.682252,34.663138,-86.634683,34.708210" projParameter="+proj=utm +zone=16 +ellps=WGS84 +datum=WGS84 +units=m +no_defs"/>

    <poly id="609991250" type="natural.water" color="181,209,209" fill="1" layer="-4.00" shape="353.936325,2737.146341 362.524555,2735.489059 368.213131,2732.613507 372.678771,2725.597643 372.255492,2715.061475 369.830339,2706.049026 365.401811,2699.014952 357.898825,2696.550609 349.312093,2697.742152 338.569312,2699.991173 329.052924,2702.554741 323.220267,2704.675776 318.273976,2715.804188 319.782575,2722.218728 324.215614,2727.888819 331.865760,2732.948500 342.733486,2737.253620 348.870002,2737.429070 353.936325,2737.146341"/>
    <poly id="61335325" type="leisure.golf_course" color="207,245,201" fill="1" layer="-2.00" shape="797.394645,3912.248050 801.981281,3951.164508 761.551544,3954.955052 709.853227,3959.794960 664.273196,3994.829391 277.140908,3991.597527 221.911358,4054.015068 317.334136,4318.430330 253.654868,4558.835833 275.199635,4582.371493 319.177660,4584.767239 353.653699,4627.629886 449.661473,4712.058813 459.364872,4749.262123 590.662011,4859.237012 943.884302,5001.250587 1012.666259,5001.481898 1179.967905,4919.897265 1248.927114,4865.360968 1272.859958,4761.768492 1308.639309,4640.606566 1311.292044,4568.757057 1317.294692,4405.887076 1290.069434,4321.682431 1298.354948,4198.464398 1267.084585,4145.540036 1267.409885,4049.674405 1245.257973,3948.964161 1054.987428,3948.853251 821.927803,3948.725030 813.688907,3879.090187 806.999750,3828.023959 802.516487,3793.787519 812.762405,3668.612963 808.693939,3447.257833 826.350977,3442.315621 850.725057,3482.884044 951.109722,3436.268714 1010.079709,3432.552431 996.210961,3465.762455 1206.369625,3505.605645 1357.847480,3461.119577 1395.168862,3467.112853 1426.741005,3432.012053 1391.546140,3377.111169 1493.870544,3340.289049 1684.986651,3202.028901 1726.271884,3198.256406 1722.490663,3155.205973 1687.191301,3133.560303 1718.796941,3086.717087 1622.481537,3090.300666 1543.919990,3074.373451 1392.445697,3112.990310 1349.306598,3085.453032 1306.091647,3077.477145 1248.973236,3112.502794 1168.455198,3092.668734 1101.168726,3231.345425 857.616432,3183.574942 894.803015,3088.110185 866.291719,2978.031515 730.040318,2800.104036 696.656397,2645.009595 647.949693,2566.102868 307.449959,2642.468758 186.605147,2736.907385 151.359604,2764.448587 123.502128,2838.089831 122.506717,2868.005334 121.815994,2888.773214 114.727835,3101.408355 136.008252,3338.621326 150.993260,3456.061074 144.546023,3674.232005 206.975102,3813.340376 387.499049,3898.056978 542.296068,3904.534761 564.669752,3907.591955 797.394645,3912.248050"/>
    <poly id="761083830" type="building.yes" color="255,230,230" fill="1" layer="-1.00" shape="10.530132,2546.983896 10.252950,2525.203749 26.283694,2525.000894 63.346771,2524.533952 63.623899,2546.291923 26.377640,2546.780445 10.530132,2546.983896"/>
    <poi id="1944839590" type="military.checkpoint" color="153,153,92" layer="3.00" x="26.33" y="2536.22"/>
    <poi id="5777297322" type="man_made.tower" color="255,230,230" layer="4.00" x="451.92" y="2451.18"/>
</additional>
