<?xml version="1.0" encoding="UTF-8"?>

<!-- generated on 07/13/20 08:37:57 by Eclipse SUMO netedit Version v1_6_0+0521-bad558c3e9
<configuration xmlns:xsi="http://www.w3.org/2001/XMLSchema-instance" xsi:noNamespaceSchemaLocation="http://sumo.dlr.de/xsd/netconvertConfiguration.xsd">

    <input>
        <sumo-net-file value="C:\Users\spraychamber\Max\PycharmProjects\redstone-gate-sim\sumo_files\net\osm.net.xml"/>
    </input>

    <output>
        <output-file value="C:\Users\spraychamber\Max\PycharmProjects\redstone-gate-sim\sumo_files\net\osm.net.xml"/>
        <output.street-names value="true"/>
    </output>

    <processing>
        <geometry.min-radius.fix.railways value="false"/>
        <geometry.max-grade.fix value="false"/>
        <offset.disable-normalization value="true"/>
        <lefthand value="false"/>
    </processing>

    <junctions>
        <no-turnarounds value="true"/>
        <junctions.corner-detail value="5"/>
        <junctions.limit-turn-speed value="5.5"/>
        <rectangular-lane-cut value="false"/>
    </junctions>

    <pedestrian>
        <walkingareas value="false"/>
    </pedestrian>

    <netedit>
        <additional-files value="C:\Users\spraychamber\Max\PycharmProjects\redstone-gate-sim\sumo_files\detectors\detectors.add.xml"/>
    </netedit>

    <report>
        <aggregate-warnings value="5"/>
    </report>

</configuration>
-->

<additional xmlns:xsi="http://www.w3.org/2001/XMLSchema-instance" xsi:noNamespaceSchemaLocation="http://sumo.dlr.de/xsd/additional_file.xsd">
    <e2Detector id="detect_0" lane="gate_edge_0" pos="20.00" length="2.00" freq="1.00" file="e2Detector_gate_edge_0_0.xml" friendlyPos="1"/>
    <e2Detector id="detect_1" lane="gate_edge_1" pos="20.00" length="2.00" freq="1.00" file="e2Detector_gate_edge_1_1.xml" friendlyPos="1"/>
    <e2Detector id="detect_2" lane="gate_edge_2" pos="20.00" length="2.00" freq="1.00" file="e2Detector_gate_edge_2_2.xml" friendlyPos="1"/>
    <e2Detector id="detect_2_0" lane="761083831.29_0" pos="2.00" length="2.00" freq="900.00" file="e2Detector_761083831.29_0_8.xml"/>
    <e2Detector id="detect_2_1" lane="761083831.29_1" pos="2.00" length="2.00" freq="900.00" file="e2Detector_761083831.29_1_9.xml"/>
    <e2Detector id="detect_2_2" lane="761083831.29_2" pos="2.00" length="2.00" freq="900.00" file="e2Detector_761083831.29_2_10.xml"/>
    <e2Detector id="detect_2_3" lane="761083831.29_3" pos="2.00" length="2.00" freq="900.00" file="e2Detector_761083831.29_3_11.xml"/>
    <e2Detector id="detect_2_4" lane="761083831.29_4" pos="2.00" length="2.00" freq="900.00" file="e2Detector_761083831.29_4_12.xml"/>
    <e2Detector id="detect_2_5" lane="761083831.29_5" pos="2.00" length="2.00" freq="900.00" file="e2Detector_761083831.29_5_13.xml"/>
    <e2Detector id="detect_2_6" lane="761083831.29_6" pos="2.00" length="2.00" freq="900.00" file="e2Detector_761083831.29_6_14.xml"/>
    <e2Detector id="detect_2_7" lane="761083831.29_7" pos="2.00" length="2.00" freq="900.00" file="e2Detector_761083831.29_7_15.xml"/>
    <e2Detector id="detect_3" lane="gate_edge_3" pos="20.00" length="2.00" freq="1.00" file="e2Detector_gate_edge_3_3.xml" friendlyPos="1"/>
    <e2Detector id="detect_4" lane="gate_edge_4" pos="20.00" length="2.00" freq="1.00" file="e2Detector_gate_edge_4_4.xml" friendlyPos="1"/>
    <e2Detector id="detect_5" lane="gate_edge_5" pos="20.00" length="2.00" freq="1.00" file="e2Detector_gate_edge_5_5.xml" friendlyPos="1"/>
    <e2Detector id="detect_6" lane="gate_edge_6" pos="20.00" length="2.00" freq="1.00" file="e2Detector_gate_edge_6_6.xml" friendlyPos="1"/>
    <e2Detector id="detect_7" lane="gate_edge_7" pos="20.00" length="2.00" freq="1.00" file="e2Detector_gate_edge_7_7.xml" friendlyPos="1"/>
</additional>
