<?xml version="1.0" encoding="UTF-8"?>

<!-- generated on 07/13/20 10:14:06 by Eclipse SUMO netedit Version v1_6_0+0521-bad558c3e9
<configuration xmlns:xsi="http://www.w3.org/2001/XMLSchema-instance" xsi:noNamespaceSchemaLocation="http://sumo.dlr.de/xsd/netconvertConfiguration.xsd">

    <input>
        <sumo-net-file value="C:\Users\spraychamber\Max\PycharmProjects\redstone-gate-sim\sumo_files\net\osm.net.xml"/>
    </input>

    <output>
        <output-file value="C:\Users\spraychamber\Max\PycharmProjects\redstone-gate-sim\sumo_files\net\osm.net.xml"/>
        <output.street-names value="true"/>
    </output>

    <processing>
        <geometry.min-radius.fix.railways value="false"/>
        <geometry.max-grade.fix value="false"/>
        <offset.disable-normalization value="true"/>
        <lefthand value="false"/>
    </processing>

    <junctions>
        <no-turnarounds value="true"/>
        <junctions.corner-detail value="5"/>
        <junctions.limit-turn-speed value="5.5"/>
        <rectangular-lane-cut value="false"/>
    </junctions>

    <pedestrian>
        <walkingareas value="false"/>
    </pedestrian>

    <netedit>
        <route-files value="C:\Users\spraychamber\Max\PycharmProjects\redstone-gate-sim\sumo_files\route\route.rou.xml"/>
    </netedit>

    <report>
        <aggregate-warnings value="5"/>
    </report>

</configuration>
-->

<routes xmlns:xsi="http://www.w3.org/2001/XMLSchema-instance" xsi:noNamespaceSchemaLocation="http://sumo.dlr.de/xsd/routes_file.xsd">
    <route edges="761084003#0 413940709 gate_edge 761083831.29 761083832#0 761083832#0.50 761083832#1-AddedOnRampEdge 761083832#1" color="yellow" id="route_0"/>
    <route edges="761084003#0 automated_gate_edge gneE1.96 761083832#0.50 761083832#1-AddedOnRampEdge 761083832#1" color="yellow" id="route_1"/>
    <flow id="routeFlow_0" begin="0.00" color="yellow" route="route_0" end="3600.00" probability="0.55"/>
    <flow id="routeFlow_1" begin="0.00" color="red" route="route_1" end="3600.00" probability="0.15"/>
</routes>
