<?xml version="1.0" encoding="UTF-8"?>

<!-- generated on 07/12/20 20:28:10 by Eclipse SUMO netedit Version v1_6_0+0521-bad558c3e9
<configuration xmlns:xsi="http://www.w3.org/2001/XMLSchema-instance" xsi:noNamespaceSchemaLocation="http://sumo.dlr.de/xsd/netconvertConfiguration.xsd">

    <input>
        <sumo-net-file value="C:\Users\spraychamber\Max\PycharmProjects\CERL\2020-07-12-15-01-13\osm.net.xml"/>
    </input>

    <output>
        <output-file value="C:\Users\spraychamber\Max\PycharmProjects\CERL\2020-07-12-15-01-13\osm.net.xml"/>
        <output.street-names value="true"/>
    </output>

    <processing>
        <geometry.min-radius.fix.railways value="false"/>
        <geometry.max-grade.fix value="false"/>
        <offset.disable-normalization value="true"/>
        <lefthand value="false"/>
    </processing>

    <junctions>
        <no-turnarounds value="true"/>
        <junctions.corner-detail value="5"/>
        <junctions.limit-turn-speed value="5.5"/>
        <rectangular-lane-cut value="false"/>
    </junctions>

    <pedestrian>
        <walkingareas value="false"/>
    </pedestrian>

    <netedit>
        <additional-files value="C:\Users\spraychamber\Max\PycharmProjects\CERL\2020-07-12-15-01-13\detectors.add.xml"/>
        <route-files value="C:\Users\spraychamber\Max\PycharmProjects\CERL\2020-07-12-15-01-13\route.rou.xml"/>
    </netedit>

    <report>
        <aggregate-warnings value="5"/>
    </report>

</configuration>
-->

<routes xmlns:xsi="http://www.w3.org/2001/XMLSchema-instance" xsi:noNamespaceSchemaLocation="http://sumo.dlr.de/xsd/routes_file.xsd">
    <route edges="761084003#0 413940709 gate_edge 761083831.29 761083832#0 761083832#1-AddedOnRampEdge 761083832#1" color="yellow" id="route_0"/>
    <flow id="flow_0" begin="0.00" from="761084003#0" to="761083832#1" end="3600.00" vehsPerHour="3600.00" departLane="free"/>
</routes>
