<?xml version="1.0" encoding="UTF-8"?>

<!-- generated on 07/13/20 20:13:19 by Eclipse SUMO netedit Version v1_6_0+0521-bad558c3e9
<configuration xmlns:xsi="http://www.w3.org/2001/XMLSchema-instance" xsi:noNamespaceSchemaLocation="http://sumo.dlr.de/xsd/netconvertConfiguration.xsd">

    <input>
        <sumo-net-file value="C:\Users\spraychamber\Max\PycharmProjects\redstone-gate-sim\sumo_files\net\osm.net.xml"/>
    </input>

    <output>
        <output-file value="C:\Users\spraychamber\Max\PycharmProjects\redstone-gate-sim\sumo_files\net\osm.net.xml"/>
        <output.street-names value="true"/>
    </output>

    <processing>
        <geometry.min-radius.fix.railways value="false"/>
        <geometry.max-grade.fix value="false"/>
        <offset.disable-normalization value="true"/>
        <lefthand value="false"/>
    </processing>

    <junctions>
        <no-turnarounds value="true"/>
        <junctions.corner-detail value="5"/>
        <junctions.limit-turn-speed value="5.5"/>
        <rectangular-lane-cut value="false"/>
    </junctions>

    <pedestrian>
        <walkingareas value="false"/>
    </pedestrian>

    <report>
        <aggregate-warnings value="5"/>
    </report>

</configuration>
-->

<net version="1.6" junctionCornerDetail="5" limitTurnSpeed="5.50" xmlns:xsi="http://www.w3.org/2001/XMLSchema-instance" xsi:noNamespaceSchemaLocation="http://sumo.dlr.de/xsd/net_file.xsd">

    <location netOffset="-530010.14,-3835736.17" convBoundary="-31.93,0.00,3447.60,3920.13" origBoundary="-86.672465,34.663138,-86.634683,34.698594" projParameter="+proj=utm +zone=16 +ellps=WGS84 +datum=WGS84 +units=m +no_defs"/>

    <type id="highway.bridleway" priority="1" numLanes="1" speed="2.78" allow="pedestrian" oneway="1" width="2.00"/>
    <type id="highway.bus_guideway" priority="1" numLanes="1" speed="27.78" allow="bus" oneway="1"/>
    <type id="highway.cycleway" priority="1" numLanes="1" speed="8.33" allow="bicycle" oneway="0" width="1.00"/>
    <type id="highway.footway" priority="1" numLanes="1" speed="2.78" allow="pedestrian" oneway="1" width="2.00"/>
    <type id="highway.ford" priority="1" numLanes="1" speed="2.78" allow="army" oneway="0"/>
    <type id="highway.living_street" priority="2" numLanes="1" speed="2.78" disallow="tram rail_urban rail rail_electric rail_fast ship" oneway="0"/>
    <type id="highway.motorway" priority="14" numLanes="2" speed="39.44" allow="private emergency authority army vip passenger hov taxi bus coach delivery truck trailer motorcycle evehicle custom1 custom2" oneway="1"/>
    <type id="highway.motorway_link" priority="9" numLanes="1" speed="22.22" allow="private emergency authority army vip passenger hov taxi bus coach delivery truck trailer motorcycle evehicle custom1 custom2" oneway="1"/>
    <type id="highway.path" priority="1" numLanes="1" speed="2.78" allow="pedestrian bicycle" oneway="1" width="2.00"/>
    <type id="highway.pedestrian" priority="1" numLanes="1" speed="2.78" allow="pedestrian" oneway="1" width="2.00"/>
    <type id="highway.primary" priority="12" numLanes="2" speed="27.78" disallow="tram rail_urban rail rail_electric rail_fast ship" oneway="0"/>
    <type id="highway.primary_link" priority="7" numLanes="1" speed="22.22" disallow="tram rail_urban rail rail_electric rail_fast ship" oneway="0"/>
    <type id="highway.raceway" priority="15" numLanes="2" speed="83.33" allow="vip" oneway="0"/>
    <type id="highway.residential" priority="3" numLanes="1" speed="13.89" disallow="tram rail_urban rail rail_electric rail_fast ship" oneway="0"/>
    <type id="highway.secondary" priority="11" numLanes="1" speed="27.78" disallow="tram rail_urban rail rail_electric rail_fast ship" oneway="0"/>
    <type id="highway.secondary_link" priority="6" numLanes="1" speed="22.22" disallow="tram rail_urban rail rail_electric rail_fast ship" oneway="0"/>
    <type id="highway.service" priority="1" numLanes="1" speed="5.56" allow="pedestrian delivery bicycle" oneway="0"/>
    <type id="highway.stairs" priority="1" numLanes="1" speed="1.39" allow="pedestrian" oneway="1" width="2.00"/>
    <type id="highway.step" priority="1" numLanes="1" speed="1.39" allow="pedestrian" oneway="1" width="2.00"/>
    <type id="highway.steps" priority="1" numLanes="1" speed="1.39" allow="pedestrian" oneway="1" width="2.00"/>
    <type id="highway.tertiary" priority="10" numLanes="1" speed="22.22" disallow="tram rail_urban rail rail_electric rail_fast ship" oneway="0"/>
    <type id="highway.tertiary_link" priority="5" numLanes="1" speed="22.22" disallow="tram rail_urban rail rail_electric rail_fast ship" oneway="0"/>
    <type id="highway.track" priority="1" numLanes="1" speed="5.56" allow="pedestrian motorcycle moped bicycle" oneway="0"/>
    <type id="highway.trunk" priority="13" numLanes="2" speed="27.78" disallow="pedestrian bicycle tram rail_urban rail rail_electric rail_fast ship" oneway="0"/>
    <type id="highway.trunk_link" priority="8" numLanes="1" speed="22.22" disallow="pedestrian bicycle tram rail_urban rail rail_electric rail_fast ship" oneway="0"/>
    <type id="highway.unclassified" priority="4" numLanes="1" speed="13.89" disallow="tram rail_urban rail rail_electric rail_fast ship" oneway="0"/>
    <type id="highway.unsurfaced" priority="1" numLanes="1" speed="8.33" disallow="tram rail_urban rail rail_electric rail_fast ship" oneway="0"/>
    <type id="railway.highspeed" priority="21" numLanes="1" speed="69.44" allow="rail_fast" oneway="1"/>
    <type id="railway.light_rail" priority="19" numLanes="1" speed="27.78" allow="rail_urban" oneway="1"/>
    <type id="railway.preserved" priority="16" numLanes="1" speed="27.78" allow="rail" oneway="1"/>
    <type id="railway.rail" priority="20" numLanes="1" speed="44.44" allow="rail" oneway="1"/>
    <type id="railway.subway" priority="18" numLanes="1" speed="27.78" allow="rail_urban" oneway="1"/>
    <type id="railway.tram" priority="17" numLanes="1" speed="13.89" allow="tram" oneway="1"/>

    <edge id=":372450654_0" function="internal">
        <lane id=":372450654_0_0" index="0" disallow="tram rail_urban rail rail_electric rail_fast ship" speed="6.46" length="9.03" shape="83.81,2620.06 81.36,2620.41 79.62,2621.47 78.60,2623.23 78.29,2625.69"/>
    </edge>
    <edge id=":372450654_1" function="internal">
        <lane id=":372450654_1_0" index="0" disallow="tram rail_urban rail rail_electric rail_fast ship" speed="18.93" length="14.54" shape="83.81,2620.06 80.14,2619.90 76.58,2619.40 73.09,2618.55 69.62,2617.34"/>
    </edge>
    <edge id=":372450654_2" function="internal">
        <lane id=":372450654_2_0" index="0" disallow="tram rail_urban rail rail_electric rail_fast ship" speed="3.65" length="4.67" shape="83.81,2620.06 82.61,2619.26 82.21,2618.46 82.61,2617.66 83.81,2616.86"/>
    </edge>
    <edge id=":372450654_3" function="internal">
        <lane id=":372450654_3_0" index="0" disallow="tram rail_urban rail rail_electric rail_fast ship" speed="6.55" length="9.10" shape="78.10,2611.27 78.47,2613.72 79.55,2615.46 81.33,2616.51 83.81,2616.86"/>
    </edge>
    <edge id=":372450654_4" function="internal">
        <lane id=":372450654_4_0" index="0" disallow="tram rail_urban rail rail_electric rail_fast ship" speed="21.23" length="14.44" shape="78.10,2611.27 78.29,2625.69"/>
        <lane id=":372450654_4_1" index="1" disallow="tram rail_urban rail rail_electric rail_fast ship" speed="21.23" length="14.44" shape="74.90,2611.29 75.09,2625.75"/>
    </edge>
    <edge id=":372450654_6" function="internal">
        <lane id=":372450654_6_0" index="0" disallow="tram rail_urban rail rail_electric rail_fast ship" speed="6.09" length="10.07" shape="74.90,2611.29 74.59,2614.74 73.61,2616.90 71.95,2617.76 69.62,2617.34"/>
    </edge>
    <edge id=":3874192869_0" function="internal">
        <lane id=":3874192869_0_0" index="0" disallow="tram rail_urban rail rail_electric rail_fast ship" speed="15.65" length="13.18" shape="35.44,2638.78 34.77,2634.75 33.66,2631.89 32.57,2629.31 31.94,2626.15"/>
    </edge>
    <edge id=":3874192869_1" function="internal">
        <lane id=":3874192869_1_0" index="0" disallow="tram rail_urban rail rail_electric rail_fast ship" speed="21.23" length="12.89" shape="35.44,2638.78 35.56,2625.92"/>
        <lane id=":3874192869_1_1" index="1" disallow="tram rail_urban rail rail_electric rail_fast ship" speed="21.23" length="12.89" shape="38.64,2638.59 38.76,2625.71"/>
        <lane id=":3874192869_1_2" index="2" disallow="tram rail_urban rail rail_electric rail_fast ship" speed="21.23" length="12.89" shape="41.83,2638.39 41.95,2625.51"/>
        <lane id=":3874192869_1_3" index="3" disallow="tram rail_urban rail rail_electric rail_fast ship" speed="21.23" length="12.89" shape="45.02,2638.19 45.15,2625.30"/>
        <lane id=":3874192869_1_4" index="4" disallow="tram rail_urban rail rail_electric rail_fast ship" speed="21.23" length="12.89" shape="48.22,2638.00 48.35,2625.09"/>
    </edge>
    <edge id=":7110766791_0" function="internal">
        <lane id=":7110766791_0_0" index="0" disallow="tram rail_urban rail rail_electric rail_fast ship" speed="13.43" length="30.15" shape="35.39,2613.71 34.16,2604.78 31.62,2598.91 29.02,2593.03 27.64,2584.11"/>
        <lane id=":7110766791_0_1" index="1" disallow="tram rail_urban rail rail_electric rail_fast ship" speed="13.43" length="30.15" shape="35.39,2613.71 34.66,2604.84 33.22,2598.85 31.72,2592.87 30.83,2584.01"/>
        <lane id=":7110766791_0_2" index="2" disallow="tram rail_urban rail rail_electric rail_fast ship" speed="13.43" length="30.15" shape="35.39,2613.71 34.03,2583.90"/>
        <lane id=":7110766791_0_3" index="3" disallow="tram rail_urban rail rail_electric rail_fast ship" speed="13.43" length="30.15" shape="38.59,2613.66 37.23,2583.80"/>
        <lane id=":7110766791_0_4" index="4" disallow="tram rail_urban rail rail_electric rail_fast ship" speed="13.43" length="30.15" shape="38.59,2613.66 40.43,2583.70"/>
        <lane id=":7110766791_0_5" index="5" disallow="tram rail_urban rail rail_electric rail_fast ship" speed="13.43" length="30.15" shape="41.79,2613.62 43.63,2583.60"/>
        <lane id=":7110766791_0_6" index="6" disallow="tram rail_urban rail rail_electric rail_fast ship" speed="13.43" length="30.15" shape="44.99,2613.58 46.83,2583.49"/>
        <lane id=":7110766791_0_7" index="7" disallow="tram rail_urban rail rail_electric rail_fast ship" speed="13.43" length="30.15" shape="48.19,2613.53 50.02,2583.39"/>
    </edge>
    <edge id=":7110766806_0" function="internal">
        <lane id=":7110766806_0_0" index="0" disallow="tram rail_urban rail rail_electric rail_fast ship" speed="22.29" length="14.36" shape="43.67,2384.40 41.96,2381.33 39.85,2378.65 38.17,2375.47 37.74,2370.94"/>
        <lane id=":7110766806_0_1" index="1" disallow="tram rail_urban rail rail_electric rail_fast ship" speed="21.72" length="14.36" shape="43.67,2384.40 42.46,2381.29 41.46,2378.55 40.88,2375.44 40.92,2371.21"/>
    </edge>
    <edge id=":7110766806_2" function="internal">
        <lane id=":7110766806_2_0" index="0" disallow="tram rail_urban rail rail_electric rail_fast ship" speed="22.35" length="14.32" shape="32.82,2385.12 33.01,2380.81 33.46,2377.88 34.02,2374.96 34.55,2370.67"/>
        <lane id=":7110766806_2_1" index="1" disallow="tram rail_urban rail rail_electric rail_fast ship" speed="22.35" length="14.32" shape="36.02,2385.14 36.21,2380.90 36.66,2378.03 37.22,2375.16 37.74,2370.94"/>
        <lane id=":7110766806_2_2" index="2" disallow="tram rail_urban rail rail_electric rail_fast ship" speed="22.35" length="14.32" shape="39.22,2385.15 39.41,2380.99 39.86,2378.17 40.41,2375.35 40.92,2371.21"/>
    </edge>
    <edge id=":7110766811_0" function="internal">
        <lane id=":7110766811_0_0" index="0" disallow="tram rail_urban rail rail_electric rail_fast ship" speed="13.43" length="38.95" shape="25.70,2509.68 26.67,2497.61 29.01,2488.87 31.39,2480.97 32.51,2471.39"/>
        <lane id=":7110766811_0_1" index="1" disallow="tram rail_urban rail rail_electric rail_fast ship" speed="13.43" length="38.95" shape="28.90,2509.65 29.87,2497.59 32.21,2488.87 34.59,2480.97 35.71,2471.40"/>
        <lane id=":7110766811_0_2" index="2" disallow="tram rail_urban rail rail_electric rail_fast ship" speed="13.43" length="38.95" shape="32.10,2509.61 33.07,2497.57 35.41,2488.86 37.79,2480.98 38.91,2471.41"/>
        <lane id=":7110766811_0_3" index="3" disallow="tram rail_urban rail rail_electric rail_fast ship" speed="13.43" length="38.95" shape="35.30,2509.58 35.71,2471.40"/>
        <lane id=":7110766811_0_4" index="4" disallow="tram rail_urban rail rail_electric rail_fast ship" speed="13.43" length="38.95" shape="38.50,2509.54 38.91,2471.41"/>
        <lane id=":7110766811_0_5" index="5" disallow="tram rail_urban rail rail_electric rail_fast ship" speed="13.43" length="38.95" shape="41.70,2509.51 40.17,2497.39 37.00,2488.72 33.89,2480.92 32.51,2471.39"/>
        <lane id=":7110766811_0_6" index="6" disallow="tram rail_urban rail rail_electric rail_fast ship" speed="13.43" length="38.95" shape="44.90,2509.47 43.37,2497.37 40.20,2488.72 37.09,2480.92 35.71,2471.40"/>
        <lane id=":7110766811_0_7" index="7" disallow="tram rail_urban rail rail_electric rail_fast ship" speed="13.43" length="38.95" shape="48.10,2509.44 46.57,2497.35 43.40,2488.71 40.29,2480.93 38.91,2471.41"/>
    </edge>
    <edge id=":761083832#1-AddedOnRampNode_0" function="internal">
        <lane id=":761083832#1-AddedOnRampNode_0_0" index="0" disallow="tram rail_urban rail rail_electric rail_fast ship" speed="22.35" length="8.27" shape="42.59,2275.78 43.30,2273.37 44.52,2271.93 45.75,2270.49 46.45,2268.08"/>
        <lane id=":761083832#1-AddedOnRampNode_0_1" index="1" disallow="tram rail_urban rail rail_electric rail_fast ship" speed="22.35" length="8.27" shape="45.78,2276.05 46.45,2268.08"/>
        <lane id=":761083832#1-AddedOnRampNode_0_2" index="2" disallow="tram rail_urban rail rail_electric rail_fast ship" speed="22.35" length="8.27" shape="48.97,2276.32 49.64,2268.35"/>
    </edge>
    <edge id=":automated_traffic_light_0" function="internal">
        <lane id=":automated_traffic_light_0_0" index="0" speed="6.75" length="8.48" shape="8.72,2544.45 8.25,2542.37 7.15,2540.80 5.43,2539.74 3.08,2539.19"/>
    </edge>
    <edge id=":automated_traffic_light_1" function="internal">
        <lane id=":automated_traffic_light_1_0" index="0" speed="11.18" length="11.33" shape="8.72,2544.45 8.16,2533.13"/>
    </edge>
    <edge id=":gate_0" function="internal">
        <lane id=":gate_0_0" index="0" disallow="tram rail_urban rail rail_electric rail_fast ship" speed="4.50" length="2.02" shape="26.17,2538.24 25.99,2535.99"/>
        <lane id=":gate_0_1" index="1" disallow="tram rail_urban rail rail_electric rail_fast ship" speed="4.50" length="2.02" shape="29.36,2538.14 29.19,2535.96"/>
        <lane id=":gate_0_2" index="2" disallow="tram rail_urban rail rail_electric rail_fast ship" speed="4.50" length="2.02" shape="32.56,2538.03 32.39,2535.92"/>
        <lane id=":gate_0_3" index="3" disallow="tram rail_urban rail rail_electric rail_fast ship" speed="4.50" length="2.02" shape="35.76,2537.93 35.59,2535.89"/>
        <lane id=":gate_0_4" index="4" disallow="tram rail_urban rail rail_electric rail_fast ship" speed="4.50" length="2.02" shape="38.96,2537.83 38.79,2535.85"/>
        <lane id=":gate_0_5" index="5" disallow="tram rail_urban rail rail_electric rail_fast ship" speed="4.50" length="2.02" shape="42.16,2537.73 41.99,2535.82"/>
        <lane id=":gate_0_6" index="6" disallow="tram rail_urban rail rail_electric rail_fast ship" speed="4.50" length="2.02" shape="45.36,2537.62 45.19,2535.78"/>
        <lane id=":gate_0_7" index="7" disallow="tram rail_urban rail rail_electric rail_fast ship" speed="4.50" length="2.02" shape="48.55,2537.52 48.39,2535.75"/>
    </edge>
    <edge id=":gneJ10_0" function="internal">
        <lane id=":gneJ10_0_0" index="0" disallow="tram rail_urban rail rail_electric rail_fast ship" speed="16.76" length="28.78" shape="28.85,2431.64 29.79,2427.13 31.08,2420.95 32.23,2412.99 32.75,2403.18"/>
    </edge>
    <edge id=":gneJ10_1" function="internal">
        <lane id=":gneJ10_1_0" index="0" disallow="tram rail_urban rail rail_electric rail_fast ship" speed="22.35" length="28.77" shape="32.65,2431.95 32.75,2403.18"/>
        <lane id=":gneJ10_1_1" index="1" disallow="tram rail_urban rail rail_electric rail_fast ship" speed="22.35" length="28.77" shape="35.85,2431.96 35.95,2403.20"/>
        <lane id=":gneJ10_1_2" index="2" disallow="tram rail_urban rail rail_electric rail_fast ship" speed="22.35" length="28.77" shape="39.05,2431.97 39.15,2403.21"/>
    </edge>
    <edge id=":gneJ13_0" function="internal">
        <lane id=":gneJ13_0_0" index="0" speed="12.53" length="0.38" shape="-30.06,2573.08 -30.06,2573.19 -30.05,2573.27 -30.03,2573.35 -30.01,2573.46"/>
    </edge>

    <edge id="-611349868" from="372450654" to="gneJ3" name="Goss Road Southwest" priority="10" type="highway.tertiary" shape="76.55,2618.46 111.04,2618.47 128.72,2620.57 144.53,2625.24 161.63,2635.87 175.36,2649.07 185.74,2665.61 191.27,2681.37 193.82,2698.99 193.40,2713.26 190.57,2725.12 186.61,2736.90 180.44,2748.25 167.16,2766.56 146.21,2795.59 131.39,2828.17 124.99,2850.20 122.51,2868.00 121.82,2888.77 123.71,3062.08 124.31,3104.58 129.38,3461.11">
        <lane id="-611349868_0" index="0" disallow="tram rail_urban rail rail_electric rail_fast ship" speed="15.65" length="937.34" shape="83.81,2616.86 111.13,2616.87 129.04,2619.00 145.19,2623.77 162.62,2634.60 176.61,2648.05 187.19,2664.91 192.83,2680.99 195.42,2698.90 194.99,2713.47 192.11,2725.56 188.08,2737.54 181.80,2749.11 168.46,2767.50 147.60,2796.40 132.89,2828.73 126.56,2850.54 124.11,2868.14 123.42,2888.79 125.31,3062.06 125.91,3104.56 130.98,3461.09">
            <param key="origId" value="611349868"/>
        </lane>
    </edge>
    <edge id="413940709" from="3874192869" to="7110766791" name="Rideout Road" priority="10" type="highway.tertiary" spreadType="center" shape="41.95,2625.28 41.79,2613.62">
        <lane id="413940709_0" index="0" disallow="tram rail_urban rail rail_electric rail_fast ship" speed="22.35" length="11.89" shape="35.56,2625.92 35.39,2613.71">
            <param key="origId" value="413940709"/>
        </lane>
        <lane id="413940709_1" index="1" disallow="tram rail_urban rail rail_electric rail_fast ship" speed="22.35" length="11.89" shape="38.76,2625.71 38.59,2613.66">
            <param key="origId" value="413940709"/>
        </lane>
        <lane id="413940709_2" index="2" disallow="tram rail_urban rail rail_electric rail_fast ship" speed="22.35" length="11.89" shape="41.95,2625.51 41.79,2613.62">
            <param key="origId" value="413940709"/>
        </lane>
        <lane id="413940709_3" index="3" disallow="tram rail_urban rail rail_electric rail_fast ship" speed="22.35" length="11.89" shape="45.15,2625.30 44.99,2613.58">
            <param key="origId" value="413940709"/>
        </lane>
        <lane id="413940709_4" index="4" disallow="tram rail_urban rail rail_electric rail_fast ship" speed="22.35" length="11.89" shape="48.35,2625.09 48.19,2613.53">
            <param key="origId" value="413940709"/>
        </lane>
    </edge>
    <edge id="413940711" from="372450654" to="7110766786" name="Rideout Road" priority="10" type="highway.tertiary" spreadType="center" shape="76.55,2618.46 77.83,2684.06 79.03,2820.80 80.09,2946.89 82.59,3078.52 85.56,3346.12 88.95,3469.46">
        <lane id="413940711_0" index="0" disallow="tram rail_urban rail rail_electric rail_fast ship" speed="20.12" length="843.85" shape="78.29,2625.69 79.43,2684.04 80.63,2820.79 81.69,2946.87 84.19,3078.50 87.16,3346.09 90.55,3469.42">
            <param key="origId" value="413940711"/>
        </lane>
        <lane id="413940711_1" index="1" disallow="tram rail_urban rail rail_electric rail_fast ship" speed="20.12" length="843.85" shape="75.09,2625.75 76.23,2684.08 77.43,2820.81 78.49,2946.91 80.99,3078.54 83.96,3346.15 87.35,3469.50">
            <param key="origId" value="413940711"/>
        </lane>
    </edge>
    <edge id="413940713.2234" from="gneJ1" to="372450654" name="Rideout Road" priority="10" type="highway.tertiary" spreadType="center" shape="71.84,2159.61 73.18,2285.39 75.13,2416.47 76.55,2618.46">
        <lane id="413940713.2234_0" index="0" disallow="tram rail_urban rail rail_electric rail_fast ship" speed="22.35" length="451.70" shape="73.44,2159.59 74.78,2285.37 76.73,2416.45 78.10,2611.27">
            <param key="origId" value="413940713"/>
        </lane>
        <lane id="413940713.2234_1" index="1" disallow="tram rail_urban rail rail_electric rail_fast ship" speed="22.35" length="451.70" shape="70.24,2159.63 71.58,2285.41 73.53,2416.49 74.90,2611.29">
            <param key="origId" value="413940713"/>
        </lane>
    </edge>
    <edge id="611349868.3704" from="gneJ2" to="372450654" name="Goss Road Southwest" priority="10" type="highway.tertiary" shape="129.44,3465.07 124.31,3104.58 123.71,3062.08 121.82,2888.77 122.51,2868.00 124.99,2850.20 131.39,2828.17 146.21,2795.59 167.16,2766.56 180.44,2748.25 186.61,2736.90 190.57,2725.12 193.40,2713.26 193.82,2698.99 191.27,2681.37 185.74,2665.61 175.36,2649.07 161.63,2635.87 144.53,2625.24 128.72,2620.57 111.04,2618.47 76.55,2618.46">
        <lane id="611349868.3704_0" index="0" disallow="tram rail_urban rail rail_electric rail_fast ship" speed="15.65" length="936.30" shape="127.84,3465.09 122.71,3104.60 122.11,3062.10 120.22,2888.75 120.91,2867.86 123.42,2849.86 129.89,2827.61 144.82,2794.78 165.86,2765.62 179.08,2747.39 185.14,2736.26 189.03,2724.68 191.81,2713.05 192.22,2699.08 189.71,2681.75 184.29,2666.31 174.11,2650.09 160.64,2637.14 143.87,2626.71 128.40,2622.14 110.95,2620.07 83.81,2620.06">
            <param key="origId" value="611349868"/>
        </lane>
    </edge>
    <edge id="761083829" from="372450654" to="7110766806" name="Goss Road Southwest" priority="10" type="highway.tertiary" spreadType="center" shape="76.55,2618.46 72.47,2618.48 68.77,2617.00 66.80,2613.94 66.11,2609.74 64.90,2480.47 63.24,2475.97 56.98,2467.49 52.86,2461.11 51.39,2454.54 52.14,2434.85 49.66,2410.32 45.29,2389.01 39.26,2371.84">
        <lane id="761083829_0" index="0" disallow="tram rail_urban rail rail_electric rail_fast ship" speed="22.22" length="238.75" shape="69.62,2617.34 68.77,2617.00 66.80,2613.94 66.11,2609.74 64.90,2480.47 63.24,2475.97 56.98,2467.49 52.86,2461.11 51.39,2454.54 52.14,2434.85 49.66,2410.32 45.29,2389.01 43.67,2384.40">
            <param key="origId" value="761083829"/>
        </lane>
    </edge>
    <edge id="761083831.29" from="gate" to="7110766811" name="Rideout Road" priority="10" type="highway.tertiary" spreadType="center" shape="37.19,2535.87 36.90,2509.56">
        <lane id="761083831.29_0" index="0" disallow="tram rail_urban rail rail_electric rail_fast ship" speed="4.50" length="26.31" shape="25.99,2535.99 25.70,2509.68">
            <param key="origId" value="761083831"/>
        </lane>
        <lane id="761083831.29_1" index="1" disallow="tram rail_urban rail rail_electric rail_fast ship" speed="4.50" length="26.31" shape="29.19,2535.96 28.90,2509.65">
            <param key="origId" value="761083831"/>
        </lane>
        <lane id="761083831.29_2" index="2" disallow="tram rail_urban rail rail_electric rail_fast ship" speed="4.50" length="26.31" shape="32.39,2535.92 32.10,2509.61">
            <param key="origId" value="761083831"/>
        </lane>
        <lane id="761083831.29_3" index="3" disallow="tram rail_urban rail rail_electric rail_fast ship" speed="4.50" length="26.31" shape="35.59,2535.89 35.30,2509.58">
            <param key="origId" value="761083831"/>
        </lane>
        <lane id="761083831.29_4" index="4" disallow="tram rail_urban rail rail_electric rail_fast ship" speed="4.50" length="26.31" shape="38.79,2535.85 38.50,2509.54">
            <param key="origId" value="761083831"/>
        </lane>
        <lane id="761083831.29_5" index="5" disallow="tram rail_urban rail rail_electric rail_fast ship" speed="4.50" length="26.31" shape="41.99,2535.82 41.70,2509.51">
            <param key="origId" value="761083831"/>
        </lane>
        <lane id="761083831.29_6" index="6" disallow="tram rail_urban rail rail_electric rail_fast ship" speed="4.50" length="26.31" shape="45.19,2535.78 44.90,2509.47">
            <param key="origId" value="761083831"/>
        </lane>
        <lane id="761083831.29_7" index="7" disallow="tram rail_urban rail rail_electric rail_fast ship" speed="4.50" length="26.31" shape="48.39,2535.75 48.10,2509.44">
            <param key="origId" value="761083831"/>
        </lane>
    </edge>
    <edge id="761083832#0" from="7110766811" to="gneJ10" name="Rideout Road" priority="10" type="highway.tertiary" spreadType="center" shape="35.71,2471.40 35.89,2420.59">
        <lane id="761083832#0_0" index="0" disallow="tram rail_urban rail rail_electric rail_fast ship" speed="22.35" length="39.44" shape="32.51,2471.39 32.65,2431.95">
            <param key="origId" value="761083832"/>
        </lane>
        <lane id="761083832#0_1" index="1" disallow="tram rail_urban rail rail_electric rail_fast ship" speed="22.35" length="39.44" shape="35.71,2471.40 35.85,2431.96">
            <param key="origId" value="761083832"/>
        </lane>
        <lane id="761083832#0_2" index="2" disallow="tram rail_urban rail rail_electric rail_fast ship" speed="22.35" length="39.44" shape="38.91,2471.41 39.05,2431.97">
            <param key="origId" value="761083832"/>
        </lane>
    </edge>
    <edge id="761083832#0.50" from="gneJ10" to="7110766806" name="Rideout Road" priority="10" type="highway.tertiary" spreadType="center" shape="35.89,2420.59 36.07,2371.57">
        <lane id="761083832#0.50_0" index="0" disallow="tram rail_urban rail rail_electric rail_fast ship" speed="22.35" length="18.06" shape="32.75,2403.18 32.82,2385.12">
            <param key="origId" value="761083832"/>
        </lane>
        <lane id="761083832#0.50_1" index="1" disallow="tram rail_urban rail rail_electric rail_fast ship" speed="22.35" length="18.06" shape="35.95,2403.20 36.02,2385.14">
            <param key="origId" value="761083832"/>
        </lane>
        <lane id="761083832#0.50_2" index="2" disallow="tram rail_urban rail rail_electric rail_fast ship" speed="22.35" length="18.06" shape="39.15,2403.21 39.22,2385.15">
            <param key="origId" value="761083832"/>
        </lane>
    </edge>
    <edge id="761083832#1" from="761083832#1-AddedOnRampNode" to="gneJ0" name="Rideout Road" priority="10" type="highway.tertiary" spreadType="center" shape="47.71,2272.20 48.63,2261.35 47.56,2160.69">
        <lane id="761083832#1_0" index="0" disallow="tram rail_urban rail rail_electric rail_fast ship" speed="22.35" length="107.56" shape="46.45,2268.08 47.03,2261.29 45.96,2160.71">
            <param key="origId" value="761083832"/>
        </lane>
        <lane id="761083832#1_1" index="1" disallow="tram rail_urban rail rail_electric rail_fast ship" speed="22.35" length="107.56" shape="49.64,2268.35 50.23,2261.41 49.16,2160.67">
            <param key="origId" value="761083832"/>
        </lane>
    </edge>
    <edge id="761083832#1-AddedOnRampEdge" from="7110766806" to="761083832#1-AddedOnRampNode" name="Rideout Road" priority="10" type="highway.tertiary" spreadType="center" shape="37.67,2371.71 46.12,2272.07">
        <lane id="761083832#1-AddedOnRampEdge_0" index="0" disallow="tram rail_urban rail rail_electric rail_fast ship" speed="22.35" length="95.22" acceleration="1" shape="34.55,2370.67 42.59,2275.78">
            <param key="origId" value="761083832"/>
        </lane>
        <lane id="761083832#1-AddedOnRampEdge_1" index="1" disallow="tram rail_urban rail rail_electric rail_fast ship" speed="22.35" length="95.22" acceleration="1" shape="37.74,2370.94 45.78,2276.05">
            <param key="origId" value="761083832"/>
        </lane>
        <lane id="761083832#1-AddedOnRampEdge_2" index="2" disallow="tram rail_urban rail rail_electric rail_fast ship" speed="22.35" length="95.22" shape="40.92,2371.21 48.97,2276.32">
            <param key="origId" value="761083832"/>
        </lane>
    </edge>
    <edge id="761084003#0" from="7110766787" to="3874192869" name="Rideout Road" priority="10" type="highway.tertiary" spreadType="center" shape="62.08,3488.10 62.02,3470.11 60.69,3401.67 52.15,2805.35 41.83,2638.39">
        <lane id="761084003#0_0" index="0" disallow="tram rail_urban rail rail_electric rail_fast ship" speed="20.12" length="850.10" shape="55.68,3488.12 55.62,3470.18 54.29,3401.78 45.75,2805.59 35.44,2638.78">
            <param key="origId" value="761084003"/>
        </lane>
        <lane id="761084003#0_1" index="1" disallow="tram rail_urban rail rail_electric rail_fast ship" speed="20.12" length="850.10" shape="58.88,3488.11 58.82,3470.15 57.49,3401.72 48.95,2805.47 38.64,2638.59">
            <param key="origId" value="761084003"/>
        </lane>
        <lane id="761084003#0_2" index="2" disallow="tram rail_urban rail rail_electric rail_fast ship" speed="20.12" length="850.10" shape="62.08,3488.10 62.02,3470.11 60.69,3401.67 52.15,2805.35 41.83,2638.39">
            <param key="origId" value="761084003"/>
        </lane>
        <lane id="761084003#0_3" index="3" disallow="tram rail_urban rail rail_electric rail_fast ship" speed="20.12" length="850.10" shape="65.28,3488.09 65.22,3470.07 63.89,3401.62 55.35,2805.23 45.02,2638.19">
            <param key="origId" value="761084003"/>
        </lane>
        <lane id="761084003#0_4" index="4" disallow="tram rail_urban rail rail_electric rail_fast ship" speed="20.12" length="850.10" shape="68.48,3488.08 68.42,3470.04 67.09,3401.56 58.55,2805.11 48.22,2638.00">
            <param key="origId" value="761084003"/>
        </lane>
    </edge>